Circuit: * C:\dev\git\laserradio\LTspice\op_amp_follower.asc

WARNING: Node NC_02 is floating.

WARNING: Less than two connections to node NC_01.  This node is used by R3.
WARNING: Less than two connections to node NC_02.  This node is used by R3.
WARNING: Less than two connections to node N001.  This node is used by V:U8:1.
Direct Newton iteration for .op point succeeded.

Date: Thu Dec 15 09:38:51 2022
Total elapsed time: 0.024 seconds.

tnom = 27
temp = 27
method = trap
totiter = 200
traniter = 0
tranpoints = 0
accept = 0
rejected = 0
matrix size = 32
fillins = 1
solver = Normal
Matrix Compiler1: off  0.2/0.1/[0.1]
Matrix Compiler2: 2.29 KB object code size  0.1/0.2/[0.1]

